<configuration>

<input>
<net-file value = "svgMapNet.net.xml"/>
<route-files value = "svgRoute.rou.xml"/>
</input>

<time>
<begin value = "0"/>
<end value = "2000"/>
</time>

</configuration>