<?xml version="1.0" encoding="UTF-8"?>

<!-- generated on 2023-01-16 00:33:04 by Eclipse SUMO netconvert Version 1.15.0
<configuration xmlns:xsi="http://www.w3.org/2001/XMLSchema-instance" xsi:noNamespaceSchemaLocation="http://sumo.dlr.de/xsd/netconvertConfiguration.xsd">

    <input>
        <osm-files value="svgMap.osm"/>
    </input>

    <output>
        <output-file value="svgMapNet.net.xml"/>
    </output>

    <projection>
        <proj.utm value="true"/>
    </projection>

</configuration>
-->

<net version="1.9" junctionCornerDetail="5" limitTurnSpeed="5.50" xmlns:xsi="http://www.w3.org/2001/XMLSchema-instance" xsi:noNamespaceSchemaLocation="http://sumo.dlr.de/xsd/net_file.xsd">

    <location netOffset="-656737.94,-6538665.50" convBoundary="0.00,0.00,1257.57,3018.73" origBoundary="5.725646,58.958609,5.748195,58.985771" projParameter="+proj=utm +zone=31 +ellps=WGS84 +datum=WGS84 +units=m +no_defs"/>

    <type id="highway.bridleway" priority="1" numLanes="1" speed="2.78" allow="pedestrian" oneway="1" width="2.00"/>
    <type id="highway.bus_guideway" priority="1" numLanes="1" speed="27.78" allow="bus" oneway="1"/>
    <type id="highway.cycleway" priority="1" numLanes="1" speed="5.56" allow="bicycle" oneway="0" width="1.00"/>
    <type id="highway.footway" priority="1" numLanes="1" speed="2.78" allow="pedestrian" oneway="1" width="2.00"/>
    <type id="highway.ford" priority="1" numLanes="1" speed="2.78" allow="army" oneway="0"/>
    <type id="highway.living_street" priority="2" numLanes="1" speed="2.78" disallow="tram rail_urban rail rail_electric rail_fast ship" oneway="0"/>
    <type id="highway.motorway" priority="14" numLanes="2" speed="39.44" allow="private emergency authority army vip passenger hov taxi bus coach delivery truck trailer motorcycle evehicle custom1 custom2" oneway="1"/>
    <type id="highway.motorway_link" priority="9" numLanes="1" speed="22.22" allow="private emergency authority army vip passenger hov taxi bus coach delivery truck trailer motorcycle evehicle custom1 custom2" oneway="1"/>
    <type id="highway.path" priority="1" numLanes="1" speed="5.56" allow="pedestrian bicycle" oneway="0" width="2.00"/>
    <type id="highway.pedestrian" priority="1" numLanes="1" speed="2.78" allow="pedestrian" oneway="1" width="2.00"/>
    <type id="highway.primary" priority="12" numLanes="2" speed="27.78" disallow="tram rail_urban rail rail_electric rail_fast ship" oneway="0"/>
    <type id="highway.primary_link" priority="7" numLanes="1" speed="22.22" disallow="tram rail_urban rail rail_electric rail_fast ship" oneway="0"/>
    <type id="highway.raceway" priority="15" numLanes="2" speed="83.33" allow="vip" oneway="0"/>
    <type id="highway.residential" priority="3" numLanes="1" speed="13.89" disallow="tram rail_urban rail rail_electric rail_fast ship" oneway="0"/>
    <type id="highway.secondary" priority="11" numLanes="1" speed="27.78" disallow="tram rail_urban rail rail_electric rail_fast ship" oneway="0"/>
    <type id="highway.secondary_link" priority="6" numLanes="1" speed="22.22" disallow="tram rail_urban rail rail_electric rail_fast ship" oneway="0"/>
    <type id="highway.service" priority="1" numLanes="1" speed="5.56" allow="pedestrian delivery bicycle" oneway="0"/>
    <type id="highway.stairs" priority="1" numLanes="1" speed="1.39" allow="pedestrian" oneway="1" width="2.00"/>
    <type id="highway.step" priority="1" numLanes="1" speed="1.39" allow="pedestrian" oneway="1" width="2.00"/>
    <type id="highway.steps" priority="1" numLanes="1" speed="1.39" allow="pedestrian" oneway="1" width="2.00"/>
    <type id="highway.tertiary" priority="10" numLanes="1" speed="22.22" disallow="tram rail_urban rail rail_electric rail_fast ship" oneway="0"/>
    <type id="highway.tertiary_link" priority="5" numLanes="1" speed="22.22" disallow="tram rail_urban rail rail_electric rail_fast ship" oneway="0"/>
    <type id="highway.track" priority="1" numLanes="1" speed="5.56" allow="pedestrian motorcycle moped bicycle" oneway="0"/>
    <type id="highway.trunk" priority="13" numLanes="2" speed="27.78" disallow="pedestrian bicycle tram rail_urban rail rail_electric rail_fast ship" oneway="0"/>
    <type id="highway.trunk_link" priority="8" numLanes="1" speed="22.22" disallow="pedestrian bicycle tram rail_urban rail rail_electric rail_fast ship" oneway="0"/>
    <type id="highway.unclassified" priority="4" numLanes="1" speed="13.89" disallow="tram rail_urban rail rail_electric rail_fast ship" oneway="0"/>
    <type id="highway.unsurfaced" priority="1" numLanes="1" speed="8.33" disallow="tram rail_urban rail rail_electric rail_fast ship" oneway="0"/>
    <type id="railway.highspeed" priority="21" numLanes="1" speed="69.44" allow="rail_fast" oneway="1"/>
    <type id="railway.light_rail" priority="19" numLanes="1" speed="27.78" allow="rail_urban" oneway="1"/>
    <type id="railway.preserved" priority="16" numLanes="1" speed="27.78" allow="rail" oneway="1"/>
    <type id="railway.rail" priority="20" numLanes="1" speed="44.44" allow="rail" oneway="1"/>
    <type id="railway.subway" priority="18" numLanes="1" speed="27.78" allow="rail_urban" oneway="1"/>
    <type id="railway.tram" priority="17" numLanes="1" speed="13.89" allow="tram" oneway="1"/>

    <edge id=":1016630295_0" function="internal">
        <lane id=":1016630295_0_0" index="0" allow="pedestrian bicycle" speed="2.04" length="1.46" width="1.00" shape="546.14,840.70 546.49,840.41 546.76,840.36 546.97,840.55 547.10,840.98"/>
    </edge>
    <edge id=":10171175356_0" function="internal">
        <lane id=":10171175356_0_0" index="0" allow="pedestrian delivery bicycle" speed="5.56" length="0.10" shape="421.12,861.35 421.12,861.35"/>
    </edge>
    <edge id=":10171175356_1" function="internal">
        <lane id=":10171175356_1_0" index="0" allow="pedestrian delivery bicycle" speed="5.56" length="0.10" shape="418.06,860.39 418.06,860.40"/>
    </edge>
    <edge id=":10171175357_0" function="internal">
        <lane id=":10171175357_0_0" index="0" allow="pedestrian delivery bicycle" speed="5.56" length="0.30" shape="433.92,829.70 433.64,829.82"/>
    </edge>
    <edge id=":10171175357_1" function="internal">
        <lane id=":10171175357_1_0" index="0" allow="pedestrian delivery bicycle" speed="5.56" length="0.30" shape="432.40,826.87 432.67,826.75"/>
    </edge>
    <edge id=":10171175358_0" function="internal">
        <lane id=":10171175358_0_0" index="0" allow="pedestrian bus delivery bicycle" speed="5.56" length="0.30" shape="427.18,864.98 426.89,865.05"/>
    </edge>
    <edge id=":10171175359_0" function="internal">
        <lane id=":10171175359_0_0" index="0" allow="pedestrian bus delivery bicycle" speed="5.56" length="0.30" shape="427.89,872.43 427.60,872.50"/>
    </edge>
    <edge id=":10171175360_0" function="internal">
        <lane id=":10171175360_0_0" index="0" allow="pedestrian bus delivery bicycle" speed="5.56" length="0.30" shape="427.52,879.91 427.23,879.99"/>
    </edge>
    <edge id=":10171175362_0" function="internal">
        <lane id=":10171175362_0_0" index="0" allow="pedestrian delivery bicycle" speed="5.56" length="0.30" shape="468.44,842.25 468.53,842.54"/>
    </edge>
    <edge id=":10171175363_0" function="internal">
        <lane id=":10171175363_0_0" index="0" allow="pedestrian bus delivery bicycle" speed="5.56" length="0.10" shape="462.18,839.87 462.18,839.87"/>
    </edge>
    <edge id=":10171175364_0" function="internal">
        <lane id=":10171175364_0_0" index="0" allow="pedestrian delivery bicycle" speed="3.65" length="4.67" shape="376.41,811.77 377.77,811.28 378.65,811.43 379.06,812.22 379.00,813.66"/>
    </edge>
    <edge id=":1023067845_0" function="internal">
        <lane id=":1023067845_0_0" index="0" allow="pedestrian delivery bicycle" speed="4.47" length="3.47" shape="443.99,751.90 443.47,751.86 442.88,752.19 442.23,752.91 441.51,754.00"/>
    </edge>
    <edge id=":1023067845_1" function="internal">
        <lane id=":1023067845_1_0" index="0" allow="pedestrian delivery bicycle" speed="3.65" length="4.67" shape="443.99,751.90 443.25,750.66 443.24,749.77 443.94,749.22 445.37,749.02"/>
    </edge>
    <edge id=":1023067845_2" function="internal">
        <lane id=":1023067845_2_0" index="0" allow="pedestrian delivery bicycle" speed="4.25" length="3.55" shape="446.46,745.90 445.94,746.69 445.38,747.61 445.08,748.47 445.37,749.02"/>
    </edge>
    <edge id=":1023067845_3" function="internal">
        <lane id=":1023067845_3_0" index="0" disallow="tram rail_urban rail rail_electric rail_fast ship" speed="13.89" length="9.55" shape="446.46,745.90 441.51,754.00"/>
        <lane id=":1023067845_3_1" index="1" disallow="tram rail_urban rail rail_electric rail_fast ship" speed="13.89" length="9.55" shape="443.76,744.19 438.75,752.38"/>
    </edge>
    <edge id=":1023067909_0" function="internal">
        <lane id=":1023067909_0_0" index="0" disallow="pedestrian tram rail_urban rail rail_electric rail_fast ship" speed="13.89" length="1.21" shape="418.73,787.47 418.07,787.75"/>
        <lane id=":1023067909_0_1" index="1" disallow="pedestrian tram rail_urban rail rail_electric rail_fast ship" speed="12.69" length="1.21" shape="418.89,790.66 417.21,790.83"/>
    </edge>
    <edge id=":1023067970_0" function="internal">
        <lane id=":1023067970_0_0" index="0" allow="pedestrian delivery bicycle" speed="5.56" length="3.25" shape="447.10,753.39 444.17,751.99"/>
    </edge>
    <edge id=":1023067970_1" function="internal">
        <lane id=":1023067970_1_0" index="0" allow="pedestrian delivery bicycle" speed="3.65" length="1.44" shape="447.10,753.39 446.36,752.15"/>
    </edge>
    <edge id=":1023067970_4" function="internal">
        <lane id=":1023067970_4_0" index="0" allow="pedestrian delivery bicycle" speed="3.65" length="3.23" shape="446.36,752.15 446.35,751.26 447.05,750.71 448.48,750.51"/>
    </edge>
    <edge id=":1023067970_2" function="internal">
        <lane id=":1023067970_2_0" index="0" allow="pedestrian delivery bicycle" speed="5.56" length="3.25" shape="445.55,749.10 448.48,750.51"/>
    </edge>
    <edge id=":1023067970_3" function="internal">
        <lane id=":1023067970_3_0" index="0" allow="pedestrian delivery bicycle" speed="3.65" length="1.44" shape="445.55,749.10 446.29,750.34"/>
    </edge>
    <edge id=":1023067970_5" function="internal">
        <lane id=":1023067970_5_0" index="0" allow="pedestrian delivery bicycle" speed="3.65" length="3.23" shape="446.29,750.34 446.30,751.24 445.60,751.79 444.17,751.99"/>
    </edge>
    <edge id=":1023068168_0" function="internal">
        <lane id=":1023068168_0_0" index="0" allow="pedestrian bicycle" speed="2.04" length="1.46" width="1.00" shape="312.28,771.72 312.26,771.27 312.38,771.02 312.66,770.97 313.08,771.12"/>
    </edge>
    <edge id=":1023068828_0" function="internal">
        <lane id=":1023068828_0_0" index="0" disallow="tram rail_urban rail rail_electric rail_fast ship" speed="22.22" length="6.20" shape="349.02,734.04 348.64,735.78 348.80,737.04 349.00,738.32 348.77,740.11"/>
        <lane id=":1023068828_0_1" index="1" disallow="tram rail_urban rail rail_electric rail_fast ship" speed="22.22" length="6.20" shape="349.02,734.04 348.15,735.67 347.25,736.62 346.40,737.60 345.68,739.26"/>
    </edge>
    <edge id=":1023068837_0" function="internal">
        <lane id=":1023068837_0_0" index="0" disallow="tram rail_urban rail rail_electric rail_fast ship" speed="22.22" length="0.12" shape="357.18,712.07 357.13,712.19"/>
    </edge>
    <edge id=":1023068837_1" function="internal">
        <lane id=":1023068837_1_0" index="0" disallow="tram rail_urban rail rail_electric rail_fast ship" speed="22.22" length="0.34" shape="354.12,711.07 354.26,710.76"/>
    </edge>
    <edge id=":1023068878_0" function="internal">
        <lane id=":1023068878_0_0" index="0" disallow="tram rail_urban rail rail_electric rail_fast ship" speed="27.78" length="40.30" shape="492.43,771.47 491.88,763.78 490.89,751.35 489.71,738.96 488.57,731.37"/>
    </edge>
    <edge id=":1023068878_1" function="internal">
        <lane id=":1023068878_1_0" index="0" allow="pedestrian delivery bicycle" speed="16.67" length="39.45" shape="488.99,769.78 491.80,763.34 492.67,754.79 491.59,744.14 488.57,731.37"/>
    </edge>
    <edge id=":1023068969_0" function="internal">
        <lane id=":1023068969_0_0" index="0" disallow="tram rail_urban rail rail_electric rail_fast ship" speed="22.22" length="5.07" shape="342.01,736.26 344.25,731.71"/>
    </edge>
    <edge id=":1023069014_0" function="internal">
        <lane id=":1023069014_0_0" index="0" allow="pedestrian bicycle" speed="5.56" length="0.30" width="1.00" shape="264.90,764.90 264.79,765.18"/>
    </edge>
    <edge id=":1023069014_1" function="internal">
        <lane id=":1023069014_1_0" index="0" allow="pedestrian bicycle" speed="5.56" length="0.29" width="1.00" shape="263.87,764.80 263.97,764.53"/>
    </edge>
    <edge id=":1023069070_0" function="internal">
        <lane id=":1023069070_0_0" index="0" allow="pedestrian bicycle" speed="2.04" length="1.46" width="1.00" shape="329.56,833.27 329.20,833.55 328.93,833.58 328.73,833.38 328.62,832.95"/>
    </edge>
    <edge id=":1023399410_0" function="internal">
        <lane id=":1023399410_0_0" index="0" allow="rail rail_electric rail_fast" speed="11.11" length="0.28" shape="363.97,842.10 364.15,841.88"/>
    </edge>
    <edge id=":1023399615_0" function="internal">
        <lane id=":1023399615_0_0" index="0" allow="pedestrian delivery bicycle" speed="7.28" length="8.14" shape="315.94,849.67 314.17,847.91 313.07,846.16 312.63,844.41 312.86,842.65"/>
    </edge>
    <edge id=":1023399615_1" function="internal">
        <lane id=":1023399615_1_0" index="0" allow="pedestrian delivery bicycle" speed="4.56" length="6.52" shape="315.94,849.67 314.44,848.13 314.15,847.04 315.07,846.39 317.18,846.17"/>
    </edge>
    <edge id=":1023399615_2" function="internal">
        <lane id=":1023399615_2_0" index="0" disallow="tram rail_urban rail rail_electric rail_fast ship" speed="27.78" length="7.51" shape="310.50,849.78 312.86,842.65"/>
    </edge>
    <edge id=":1023399615_3" function="internal">
        <lane id=":1023399615_3_0" index="0" allow="pedestrian delivery bicycle" speed="7.07" length="8.13" shape="310.50,849.78 311.39,848.20 312.79,847.07 314.73,846.39 317.18,846.17"/>
    </edge>
    <edge id=":1023399730_0" function="internal">
        <lane id=":1023399730_0_0" index="0" disallow="tram rail_urban rail rail_electric rail_fast ship" speed="27.78" length="5.04" shape="315.65,833.86 317.12,829.04"/>
    </edge>
    <edge id=":1023399773_0" function="internal">
        <lane id=":1023399773_0_0" index="0" allow="rail rail_electric rail_fast" speed="11.11" length="0.30" shape="368.20,843.79 368.39,843.55"/>
    </edge>
    <edge id=":1023399875_0" function="internal">
        <lane id=":1023399875_0_0" index="0" allow="pedestrian delivery bicycle" speed="5.56" length="8.02" shape="417.03,894.59 416.80,892.22 416.76,890.59 416.80,888.96 416.83,886.58"/>
    </edge>
    <edge id=":1023399875_1" function="internal">
        <lane id=":1023399875_1_0" index="0" allow="pedestrian delivery bicycle" speed="3.65" length="4.67" shape="417.03,894.59 417.68,893.30 418.43,892.81 419.27,893.12 420.20,894.21"/>
    </edge>
    <edge id=":1023399875_2" function="internal">
        <lane id=":1023399875_2_0" index="0" allow="pedestrian delivery bicycle" speed="5.56" length="7.70" shape="424.20,888.48 422.26,889.33 420.94,890.57 420.26,892.20 420.20,894.21"/>
    </edge>
    <edge id=":1023399875_3" function="internal">
        <lane id=":1023399875_3_0" index="0" allow="pedestrian delivery bicycle" speed="5.56" length="8.91" shape="424.20,888.48 420.98,889.16 418.68,889.07 417.30,888.21 416.83,886.58"/>
    </edge>
    <edge id=":1023399875_4" function="internal">
        <lane id=":1023399875_4_0" index="0" allow="pedestrian delivery bicycle" speed="5.56" length="7.60" shape="420.03,886.63 420.00,888.89 419.96,890.43 419.99,891.97 420.20,894.21"/>
    </edge>
    <edge id=":1023399875_5" function="internal">
        <lane id=":1023399875_5_0" index="0" allow="pedestrian delivery bicycle" speed="3.65" length="4.67" shape="420.03,886.63 419.21,887.82 418.40,888.20 417.61,887.79 416.83,886.58"/>
    </edge>
    <edge id=":1023399927_0" function="internal">
        <lane id=":1023399927_0_0" index="0" allow="pedestrian delivery bicycle" speed="5.56" length="4.71" shape="297.60,898.87 296.25,898.48 295.33,898.22 294.40,898.00 293.02,897.75"/>
    </edge>
    <edge id=":1023399927_1" function="internal">
        <lane id=":1023399927_1_0" index="0" allow="pedestrian delivery bicycle" speed="6.06" length="7.82" shape="297.60,898.87 296.36,898.11 295.75,896.70 295.75,894.64 296.37,891.94"/>
    </edge>
    <edge id=":1023399927_2" function="internal">
        <lane id=":1023399927_2_0" index="0" allow="pedestrian delivery bicycle" speed="3.65" length="4.67" shape="297.60,898.87 296.66,897.77 296.49,896.89 297.09,896.23 298.47,895.79"/>
    </edge>
    <edge id=":1023399927_3" function="internal">
        <lane id=":1023399927_3_0" index="0" allow="pedestrian delivery bicycle" speed="4.92" length="4.25" shape="293.55,894.59 294.44,894.55 295.21,894.09 295.85,893.22 296.37,891.94"/>
    </edge>
    <edge id=":1023399927_4" function="internal">
        <lane id=":1023399927_4_0" index="0" allow="pedestrian delivery bicycle" speed="5.56" length="5.07" shape="293.55,894.59 295.03,894.87 296.03,895.10 297.02,895.37 298.47,895.79"/>
    </edge>
    <edge id=":1023399927_5" function="internal">
        <lane id=":1023399927_5_0" index="0" allow="pedestrian delivery bicycle" speed="3.65" length="4.67" shape="293.55,894.59 294.60,895.58 294.86,896.43 294.34,897.16 293.02,897.75"/>
    </edge>
    <edge id=":1023399927_6" function="internal">
        <lane id=":1023399927_6_0" index="0" allow="pedestrian delivery bicycle" speed="4.37" length="3.87" shape="293.47,901.18 293.82,899.78 293.87,898.73 293.60,898.06 293.02,897.75"/>
    </edge>
    <edge id=":1023399927_7" function="internal">
        <lane id=":1023399927_7_0" index="0" disallow="tram rail_urban rail rail_electric rail_fast ship" speed="27.78" length="9.69" shape="293.47,901.18 296.37,891.94"/>
    </edge>
    <edge id=":1023399927_8" function="internal">
        <lane id=":1023399927_8_0" index="0" allow="pedestrian delivery bicycle" speed="6.26" length="8.06" shape="293.47,901.18 294.53,898.50 295.72,896.71 297.03,895.81 298.47,895.79"/>
    </edge>
    <edge id=":1023400144_0" function="internal">
        <lane id=":1023400144_0_0" index="0" allow="pedestrian bicycle" speed="5.56" length="10.67" width="2.00" shape="344.87,854.12 342.23,855.61 340.57,857.10 339.17,858.92 337.31,861.41"/>
    </edge>
    <edge id=":1023400144_1" function="internal">
        <lane id=":1023400144_1_0" index="0" allow="pedestrian delivery bicycle" speed="5.56" length="10.59" shape="344.87,854.12 342.07,855.35 339.93,855.96 337.71,856.13 334.63,856.04"/>
    </edge>
    <edge id=":1023400144_2" function="internal">
        <lane id=":1023400144_2_0" index="0" allow="pedestrian bicycle" speed="4.36" length="5.74" width="2.00" shape="336.09,859.73 337.05,858.18 337.13,857.05 336.32,856.34 334.63,856.04"/>
    </edge>
    <edge id=":1023400144_3" function="internal">
        <lane id=":1023400144_3_0" index="0" allow="pedestrian bicycle" speed="2.92" length="3.03" width="2.00" shape="336.09,859.73 337.03,859.69 337.54,859.96 337.64,860.53 337.31,861.41"/>
    </edge>
    <edge id=":1023400603_0" function="internal">
        <lane id=":1023400603_0_0" index="0" allow="rail rail_electric rail_fast" speed="11.11" length="3.00" shape="521.18,649.49 523.02,647.12"/>
    </edge>
    <edge id=":1023400888_0" function="internal">
        <lane id=":1023400888_0_0" index="0" allow="rail rail_electric rail_fast" speed="11.11" length="40.40" shape="529.31,648.05 511.25,684.18"/>
    </edge>
    <edge id=":1023400888_1" function="internal">
        <lane id=":1023400888_1_0" index="0" allow="rail rail_electric rail_fast" speed="11.11" length="40.30" shape="529.31,648.05 508.32,682.45"/>
    </edge>
    <edge id=":1023400957_0" function="internal">
        <lane id=":1023400957_0_0" index="0" allow="pedestrian delivery bicycle" speed="5.56" length="4.63" shape="355.64,839.47 356.64,838.53 357.41,837.94 358.30,837.61 359.63,837.43"/>
    </edge>
    <edge id=":1023407675_0" function="internal">
        <lane id=":1023407675_0_0" index="0" allow="pedestrian bicycle" speed="2.89" length="2.92" width="2.00" shape="317.75,885.38 316.87,885.56 316.34,885.39 316.16,884.86 316.33,883.98"/>
    </edge>
    <edge id=":1023407737_0" function="internal">
        <lane id=":1023407737_0_0" index="0" allow="rail rail_electric rail_fast" speed="11.11" length="0.28" shape="387.12,851.29 387.29,851.06"/>
    </edge>
    <edge id=":1023408156_0" function="internal">
        <lane id=":1023408156_0_0" index="0" allow="pedestrian delivery bicycle" speed="5.56" length="6.11" shape="426.46,856.66 424.59,857.20 423.16,857.92 422.15,858.82 421.57,859.89"/>
    </edge>
    <edge id=":1023408156_1" function="internal">
        <lane id=":1023408156_1_0" index="0" allow="pedestrian delivery bicycle" speed="5.56" length="9.65" shape="426.46,856.66 423.18,857.04 421.09,856.48 420.21,854.99 420.52,852.55"/>
    </edge>
    <edge id=":1023408156_2" function="internal">
        <lane id=":1023408156_2_0" index="0" allow="pedestrian delivery bicycle" speed="5.56" length="6.69" shape="423.57,853.51 421.57,859.89"/>
    </edge>
    <edge id=":1023408156_3" function="internal">
        <lane id=":1023408156_3_0" index="0" allow="pedestrian delivery bicycle" speed="3.65" length="4.67" shape="423.57,853.51 422.45,854.41 421.56,854.56 420.92,853.94 420.52,852.55"/>
    </edge>
    <edge id=":1023408156_4" function="internal">
        <lane id=":1023408156_4_0" index="0" allow="pedestrian delivery bicycle" speed="5.56" length="6.69" shape="418.52,858.94 420.52,852.55"/>
    </edge>
    <edge id=":1023408156_5" function="internal">
        <lane id=":1023408156_5_0" index="0" allow="pedestrian delivery bicycle" speed="3.65" length="4.67" shape="418.52,858.94 419.64,858.03 420.52,857.89 421.17,858.51 421.57,859.89"/>
    </edge>
    <edge id=":1023408249_0" function="internal">
        <lane id=":1023408249_0_0" index="0" allow="pedestrian delivery bicycle" speed="5.56" length="6.29" shape="483.94,773.43 485.72,772.97 486.87,772.38 487.79,771.44 488.87,769.94"/>
    </edge>
    <edge id=":1023408425_0" function="internal">
        <lane id=":1023408425_0_0" index="0" allow="rail rail_electric rail_fast" speed="11.11" length="42.44" shape="564.91,600.30 539.07,633.97"/>
    </edge>
    <edge id=":1023408425_1" function="internal">
        <lane id=":1023408425_1_0" index="0" allow="rail rail_electric rail_fast" speed="11.11" length="42.51" shape="564.91,600.30 559.64,606.38 550.81,616.19 541.90,625.95 536.44,631.86"/>
    </edge>
    <edge id=":1023408596_0" function="internal">
        <lane id=":1023408596_0_0" index="0" disallow="tram rail_urban rail rail_electric rail_fast ship" speed="27.78" length="8.02" shape="317.36,828.21 317.79,825.87 317.74,824.20 317.73,822.54 318.29,820.25"/>
        <lane id=":1023408596_0_1" index="1" disallow="tram rail_urban rail rail_electric rail_fast ship" speed="27.78" length="8.02" shape="317.36,828.21 318.26,826.06 319.24,824.75 320.27,823.45 321.30,821.34"/>
    </edge>
    <edge id=":1028955098_0" function="internal">
        <lane id=":1028955098_0_0" index="0" allow="pedestrian bicycle" speed="2.04" length="1.46" width="1.00" shape="552.81,584.27 553.23,584.12 553.51,584.16 553.63,584.41 553.61,584.86"/>
    </edge>
    <edge id=":1028955148_0" function="internal">
        <lane id=":1028955148_0_0" index="0" allow="pedestrian delivery bicycle" speed="5.56" length="4.18" shape="501.66,816.82 497.47,816.81"/>
    </edge>
    <edge id=":1028955148_1" function="internal">
        <lane id=":1028955148_1_0" index="0" allow="pedestrian delivery bicycle" speed="3.65" length="1.44" shape="501.66,816.82 500.44,816.04"/>
    </edge>
    <edge id=":1028955148_4" function="internal">
        <lane id=":1028955148_4_0" index="0" allow="pedestrian delivery bicycle" speed="3.65" length="3.23" shape="500.44,816.04 500.03,815.25 500.41,814.44 501.59,813.62"/>
    </edge>
    <edge id=":1028955148_2" function="internal">
        <lane id=":1028955148_2_0" index="0" allow="pedestrian delivery bicycle" speed="5.56" length="3.99" shape="497.61,813.61 501.59,813.62"/>
    </edge>
    <edge id=":1028955148_3" function="internal">
        <lane id=":1028955148_3_0" index="0" allow="pedestrian delivery bicycle" speed="3.65" length="1.44" shape="497.61,813.61 498.77,814.46"/>
    </edge>
    <edge id=":1028955148_5" function="internal">
        <lane id=":1028955148_5_0" index="0" allow="pedestrian delivery bicycle" speed="3.65" length="3.23" shape="498.77,814.46 499.14,815.28 498.71,816.06 497.47,816.81"/>
    </edge>
    <edge id=":1028955174_0" function="internal">
        <lane id=":1028955174_0_0" index="0" allow="pedestrian delivery bicycle" speed="3.65" length="4.67" shape="520.94,813.26 522.16,814.03 522.57,814.83 522.19,815.63 521.00,816.46"/>
    </edge>
    <edge id=":1028955220_0" function="internal">
        <lane id=":1028955220_0_0" index="0" allow="pedestrian delivery bicycle" speed="4.65" length="4.18" shape="497.27,816.80 496.38,816.96 495.74,817.52 495.34,818.49 495.19,819.86"/>
    </edge>
    <edge id=":1028955220_1" function="internal">
        <lane id=":1028955220_1_0" index="0" allow="pedestrian delivery bicycle" speed="6.64" length="9.28" shape="497.27,816.80 494.99,816.32 493.38,815.10 492.43,813.12 492.16,810.40"/>
    </edge>
    <edge id=":1028955220_2" function="internal">
        <lane id=":1028955220_2_0" index="0" allow="pedestrian delivery bicycle" speed="3.65" length="4.67" shape="497.27,816.80 496.11,815.95 495.74,815.14 496.17,814.36 497.41,813.61"/>
    </edge>
    <edge id=":1028955220_3" function="internal">
        <lane id=":1028955220_3_0" index="0" allow="pedestrian delivery bicycle" speed="4.74" length="4.22" shape="495.35,810.46 495.46,811.80 495.84,812.78 496.49,813.38 497.41,813.61"/>
    </edge>
    <edge id=":1028955220_4" function="internal">
        <lane id=":1028955220_4_0" index="0" disallow="tram rail_urban rail rail_electric rail_fast ship" speed="27.78" length="9.40" shape="495.35,810.46 495.19,819.86"/>
    </edge>
    <edge id=":1028955220_5" function="internal">
        <lane id=":1028955220_5_0" index="0" disallow="tram rail_urban rail rail_electric rail_fast ship" speed="27.78" length="9.40" shape="491.99,819.80 492.16,810.40"/>
    </edge>
    <edge id=":1028955220_6" function="internal">
        <lane id=":1028955220_6_0" index="0" allow="pedestrian delivery bicycle" speed="6.58" length="3.54" shape="491.99,819.80 492.37,817.01 492.70,816.37"/>
    </edge>
    <edge id=":1028955220_7" function="internal">
        <lane id=":1028955220_7_0" index="0" allow="pedestrian delivery bicycle" speed="6.58" length="5.87" shape="492.70,816.37 493.40,815.05 495.08,813.91 497.41,813.61"/>
    </edge>
    <edge id=":1028955271_0" function="internal">
        <lane id=":1028955271_0_0" index="0" disallow="tram rail_urban rail rail_electric rail_fast ship" speed="27.78" length="5.14" shape="577.71,502.04 575.16,506.56"/>
        <lane id=":1028955271_0_1" index="1" disallow="tram rail_urban rail rail_electric rail_fast ship" speed="27.78" length="5.14" shape="574.89,500.51 572.39,504.94"/>
    </edge>
    <edge id=":10316931247_0" function="internal">
        <lane id=":10316931247_0_0" index="0" allow="pedestrian bicycle" speed="5.56" length="0.16" width="1.00" shape="327.73,764.35 327.71,764.39 327.70,764.42 327.70,764.45 327.69,764.50"/>
    </edge>
    <edge id=":10316931247_1" function="internal">
        <lane id=":10316931247_1_0" index="0" allow="pedestrian bicycle" speed="5.56" length="0.47" width="1.00" shape="326.70,764.40 326.71,764.26 326.73,764.16 326.76,764.07 326.82,763.94"/>
    </edge>
    <edge id=":1069533461_0" function="internal">
        <lane id=":1069533461_0_0" index="0" disallow="tram rail_urban rail rail_electric rail_fast ship" speed="3.65" length="4.67" shape="538.98,446.20 540.36,445.78 541.23,445.97 541.60,446.79 541.46,448.22"/>
    </edge>
    <edge id=":10728164_0" function="internal">
        <lane id=":10728164_0_0" index="0" disallow="tram rail_urban rail rail_electric rail_fast ship" speed="13.89" length="5.23" shape="454.98,717.04 458.23,712.81"/>
        <lane id=":10728164_0_1" index="1" disallow="tram rail_urban rail rail_electric rail_fast ship" speed="13.89" length="5.23" shape="457.59,718.90 460.71,714.83"/>
    </edge>
    <edge id=":10728167_0" function="internal">
        <lane id=":10728167_0_0" index="0" disallow="tram rail_urban rail rail_electric rail_fast ship" speed="13.89" length="5.69" shape="424.59,763.79 427.40,758.69"/>
        <lane id=":10728167_0_1" index="1" disallow="tram rail_urban rail rail_electric rail_fast ship" speed="13.89" length="5.69" shape="427.46,765.20 430.14,760.33"/>
    </edge>
    <edge id=":10728170_0" function="internal">
        <lane id=":10728170_0_0" index="0" disallow="pedestrian tram rail_urban rail rail_electric rail_fast ship" speed="9.43" length="7.57" shape="411.63,788.41 413.43,787.38 414.21,786.10 414.66,784.45 415.46,782.31"/>
        <lane id=":10728170_0_1" index="1" disallow="pedestrian tram rail_urban rail rail_electric rail_fast ship" speed="9.98" length="8.54" shape="411.63,788.41 414.04,787.59 415.74,786.90 417.06,785.80 418.33,783.72"/>
    </edge>
    <edge id=":10728170_2" function="internal">