<?xml version="1.0" encoding="UTF-8"?>

<!-- generated on 2023-01-16 01:23:10.297000 by randomTrips.py v1_15_0+0002-e6790248698
<configuration>
    <end value="50"/>
    <length value="True"/>
    <net-file value="svgMapNet.net.xml"/>
    <route-file value="svgRoute.rou.xml"/>
</configuration>
-->

<!-- generated on 2023-01-16 01:23:10 by Eclipse SUMO duarouter Version 1.15.0
<configuration xmlns:xsi="http://www.w3.org/2001/XMLSchema-instance" xsi:noNamespaceSchemaLocation="http://sumo.dlr.de/xsd/duarouterConfiguration.xsd">

    <input>
        <net-file value="svgMapNet.net.xml"/>
        <route-files value="trips.trips.xml"/>
    </input>

    <output>
        <output-file value="svgRoute.rou.xml"/>
        <alternatives-output value="NUL"/>
    </output>

    <time>
        <begin value="0"/>
        <end value="50"/>
    </time>

    <report>
        <no-warnings value="true"/>
        <ignore-errors value="true"/>
        <no-step-log value="true"/>
    </report>

</configuration>
-->

<routes xmlns:xsi="http://www.w3.org/2001/XMLSchema-instance" xsi:noNamespaceSchemaLocation="http://sumo.dlr.de/xsd/routes_file.xsd">
    <vehicle id="0" depart="0.00">
        <route edges="24465460#0 24465460#1 24465460#2 -24465433"/>
    </vehicle>
    <vehicle id="1" depart="1.00">
        <route edges="-32285063#2 31448384#0 31448384#1 32512624 32512686 8254588#3 27602585 975677175 27602536#7 27602536#8 27602536#0 27602536#1 27602536#2 27602536#3 27602613#0 27602613#1 92103690#0 92103690#1 92103690#2 92103690#3 -256495546#6 -256495546#5 -256495546#4 -31666224#5 -31666224#4 -31666224#3"/>
    </vehicle>
    <vehicle id="2" depart="2.00">
        <route edges="256495544#6 24465460#0 24465460#1"/>
    </vehicle>
    <vehicle id="3" depart="3.00">
        <route edges="32512637 -975677174 24462952 24453319 -24453319 975677173 32512624 32512686 8254588#3 27602585 975677175 27602536#7 27602536#8 27602536#0 27602536#1 27602536#2 27602536#3 27602613#0 27602613#1 92103690#0 92103690#1 92103690#2 92103690#3 -256495546#6 -256495546#5 -256495546#4 -256495546#3 24467179 -24467155#1"/>
    </vehicle>
    <vehicle id="6" depart="6.00">
        <route edges="-24453319 975677173 32512624 32512686 8254588#3 27602585 975677175 27602536#7 27602536#8 27602536#0 27602536#1 27602536#2 27602536#3 27602613#0 27602613#1 92103690#0 92103690#1 92103690#2 92103690#3 256495544#0 256495544#1 256495544#2 256495544#3 256495544#4 256495544#5 31662665#1 -31662665#1"/>
    </vehicle>
    <vehicle id="8" depart="8.00">
        <route edges="-31662665#1 -256495544#5 -256495544#4 -256495544#3 -256495544#2 -256495544#1 -256495544#0 -92103690#3 -92103690#2 -92103690#1 -92103690#0 823004698 27602609 27602536#5 27237774 8254588#5 8254588#6 8254588#0 8254588#1 32512637 -975677174 24462952 24453319"/>
    </vehicle>
    <vehicle id="9" depart="9.00">
        <route edges="31527985#0 31527985#1 32285063#0 32285063#1 31448384#0 31448384#1 32512624 32512686 8254588#3 27602585 975677175 27602536#7 27602536#8 27602536#0 27602536#1 27602536#2 27602536#3 27602613#0 27602613#1 92103690#0 92103690#1 92103690#2 92103690#3 -256495546#6 -256495546#5 -256495546#4 -256495546#3 24467179 -31552928#1 -31552928#0 -175278350"/>
    </vehicle>
    <vehicle id="10" depart="10.00">
        <route edges="31527985#0 31527985#1 32285063#0 32285063#1 31448384#0 31448384#1 32512624 32512686 8254588#3 27602585 975677175 27602536#7 27602536#8 27602536#0 27602536#1 27602536#2 27602536#3 27602613#0 27602613#1 92103690#0 92103690#1 92103690#2 92103690#3 -256495546#6 -256495546#5 -256495546#4 -256495546#3 24467179 24467155#2"/>
    </vehicle>
    <vehicle id="13" depart="13.00">
        <route edges="-24465460#0 -256495544#6 -256495544#5 -256495544#4 -256495544#3 -256495544#2 24467155#4 175224251 -175224251 -24467155#4"/>
    </vehicle>
    <vehicle id="14" depart="14.00">
        <route edges="31666224#0 31666224#1 31666224#2 31666224#3 31666224#4 31666224#5 256495546#4 256495546#5 256495546#6 -92103690#3 -92103690#2 -92103690#1 -92103690#0 823004698 27602609 27602536#5 27237774 8254588#5 8254588#6 8254588#0 8254588#1 32512637 -975677174 24462952 24453319"/>
    </vehicle>
    <vehicle id="15" depart="15.00">
        <route edges="31527985#0 31527985#1 32285063#0 32285063#1 31448384#0 31448384#1 32512624 32512686 8254588#3 27602585 975677175 27602536#7 27602536#8 27602536#0 27602536#1 27602536#2 27602536#3 27602613#0 27602613#1 92103690#0 92103690#1 92103690#2 92103690#3 256495544#0 256495544#1"/>
    </vehicle>
    <vehicle id="18" depart="18.00">
        <route edges="31553845#0 31553845#1 32285063#0 32285063#1 31448384#0 31448384#1 32512624 32512686 8254588#3 8254588#4 8254588#5 8254588#6 8254588#0 8254588#1 32512637 -975677174 24462952 24453319"/>
    </vehicle>
    <vehicle id="20" depart="20.00">
        <route edges="24467816#1 24467816#2 280159318#0 280159318#1 -256495546#6 -256495546#5 -256495546#4 -256495546#3 -256495546#2 -256495546#1 -24467107#2 -24467107#1 -24467107#0 -24465460#2 -24465460#1 -24465460#0"/>
    </vehicle>
    <vehicle id="21" depart="21.00">
        <route edges="-31662697#1 -256495544#4 -256495544#3 -256495544#2 -256495544#1 -256495544#0 -92103690#3 -92103690#2 -92103690#1 -92103690#0 823004698 27602609 27602536#5 27237774 8254588#5 32509369#0 32509369#1 32509369#2 32509366#1 32509423 32509424#1 32509424#2 32509424#3 24690876#0 24690876#1 106925729 106925748"/>
    </vehicle>
    <vehicle id="23" depart="23.00">
        <route edges="-24465460#0 -256495544#6 -256495544#5 -256495544#4 -256495544#3 -256495544#2 -256495544#1 -256495544#0 -92103690#3 -92103690#2"/>
    </vehicle>
    <vehicle id="26" depart="26.00">
        <route edges="-32285063#2 31448384#0 31448384#1 32512624 32512686 8254588#3 8254588#4 8254588#5 32509369#0 32509369#1 32509369#2 32509366#1 32509423 32509424#1 34290009#0 34290009#1"/>
    </vehicle>
    <vehicle id="27" depart="27.00">
        <route edges="24465460#0 24467176#0 24467176#1 175278353 31666224#3 31666224#4 31666224#5 256495546#4 256495546#5 256495546#6 -92103690#3 -92103690#2 -92103690#1 -92103690#0 823004698 27602609 27602536#5 27237774 8254588#5 8254588#6 8254588#0 8254588#1 32512637 -975677174 24462952 24453319"/>
    </vehicle>
    <vehicle id="28" depart="28.00">
        <route edges="-256495544#6 -256495544#5 -256495544#4 -256495544#3 -256495544#2 -256495544#1 -256495544#0 -280159318#1 -280159318#0 -823004505 -24467822#2 -24467822#1 -24467822#0 24467822#0 24467822#1 24467822#2"/>
    </vehicle>
    <vehicle id="32" depart="32.00">
        <route edges="31662697#1 31666224#2 31666224#3 31666224#4 31666224#5 -256495546#3 -256495546#2 -256495546#1 256495546#1"/>
    </vehicle>
    <vehicle id="33" depart="33.00">
        <route edges="-31662697#1 31662697#1 31666224#2 31666224#3 -8426262#2 -8426262#1 -24467107#0 -24465433"/>
    </vehicle>
    <vehicle id="34" depart="34.00">
        <route edges="133433329#1 -88015557#1 -88015557#0"/>
    </vehicle>
    <vehicle id="35" depart="35.00">
        <route edges="-31552928#0 175278353 31666224#3 31666224#4 31666224#5 256495546#4 256495546#5 256495546#6 -92103690#3 -92103690#2 -92103690#1 -92103690#0 823004698 27602609 27602536#5 27237774 8254588#5 32509369#0 32509369#1 32509369#2 32509366#1 32509366#2 32509366#3 32509366#4 32509366#5 34290014#0 34290014#1"/>
    </vehicle>
    <vehicle id="36" depart="36.00">
        <route edges="32509369#1 32509369#2 32509366#1 32509366#2 32509366#3 32509366#4 32509366#5 34290014#0 34290014#1 34290014#2 34290014#3 8254588#1 8254588#2 8254588#3 27602585 975677175 27602536#7 27602536#8 27602536#0 27602536#1 27602536#2 27602536#3 27602613#0 27602613#1 92103690#0 92103690#1 92103690#2 92103690#3 -256495546#6 -256495546#5 -256495546#4 -31666224#5 -31666224#4 -31666224#3 175278354#0"/>
    </vehicle>
    <vehicle id="39" depart="39.00">
        <route edges="-32285063#2 31448384#0 31448384#1 32512624 32512686 8254588#3 27602585 975677175 27602536#7 27602536#8 27602536#0 27602536#1 27602536#2 27602536#3 27602613#0 27602613#1 92103690#0 92103690#1 92103690#2 92103690#3 -256495546#6 -256495546#5 -256495546#4 -256495546#3 -256495546#2 -256495546#1 -24467107#2 -24467107#1 -8426262#0"/>
    </vehicle>
    <vehicle id="44" depart="44.00">
        <route edges="-24465460#0"/>
    </vehicle>
    <vehicle id="45" depart="45.00">
        <route edges="-24467107#0 24467107#0 24467107#1 24467107#2 256495546#1 256495546#2 256495546#3 256495546#4 256495546#5 256495546#6 -92103690#3 -92103690#2 -92103690#1 -92103690#0 823004698 27602609 27602536#5 27237774 8254588#5 8254588#6 8254588#0 8254588#1 32512637 -975677174 24462952 24453319"/>
    </vehicle>
    <vehicle id="49" depart="49.00">
        <route edges="8426262#1 8426262#2 31666224#4 31666224#5"/>
    </vehicle>
</routes>
